Version 4
SHEET 1 2228 1108
WIRE -736 96 -816 96
WIRE -672 96 -736 96
WIRE -672 144 -672 96
WIRE -816 208 -816 96
WIRE -112 208 -176 208
WIRE -1696 240 -1696 176
WIRE -112 240 -176 240
WIRE -672 256 -672 224
WIRE -592 256 -672 256
WIRE -544 256 -592 256
WIRE 176 256 112 256
WIRE 320 256 320 208
WIRE -672 272 -672 256
WIRE -112 272 -176 272
WIRE -544 288 -544 256
WIRE -400 288 -400 224
WIRE -112 304 -176 304
WIRE 320 352 320 320
WIRE -1696 400 -1696 320
WIRE -816 400 -816 288
WIRE -736 400 -816 400
WIRE -672 400 -672 352
WIRE -672 400 -736 400
WIRE -544 416 -544 368
WIRE -400 416 -400 368
FLAG -1696 400 0
FLAG -1696 176 vdd
FLAG -176 208 vdd
IOPIN -176 208 In
FLAG -400 416 0
FLAG -176 272 inp
IOPIN -176 272 In
FLAG -176 240 inn
IOPIN -176 240 In
FLAG 176 256 out
IOPIN 176 256 Out
FLAG -176 304 iref_sink
IOPIN -176 304 In
FLAG -400 224 iref_sink
IOPIN -400 224 In
FLAG -736 96 inp
IOPIN -736 96 In
FLAG -736 400 inn
IOPIN -736 400 In
FLAG -544 416 0
FLAG -592 256 vcm
FLAG 320 352 0
FLAG 320 208 out
IOPIN 320 208 Out
SYMBOL voltage -1696 224 R0
WINDOW 123 0 0 Left 0
WINDOW 39 0 0 Left 0
SYMATTR InstName V1
SYMATTR Value 1.8
SYMBOL current -400 288 R0
WINDOW 123 0 0 Left 0
WINDOW 39 0 0 Left 0
SYMATTR InstName I1
SYMATTR Value 50µ
SYMBOL lvds_rcvr_v2 0 256 R0
SYMATTR InstName X1
SYMBOL voltage -816 192 M0
WINDOW 123 0 0 Left 0
WINDOW 39 0 0 Left 0
SYMATTR InstName V3
SYMATTR Value PULSE({pulse_ampl /2} {-1*pulse_ampl /2} 100f 10f 10f 0.5n 1n)
SYMBOL res -688 128 R0
SYMATTR InstName R1
SYMATTR Value 50
SYMBOL res -688 256 R0
SYMATTR InstName R2
SYMATTR Value 50
SYMBOL voltage -544 272 R0
WINDOW 123 0 0 Left 0
WINDOW 39 0 0 Left 0
SYMATTR InstName V4
SYMATTR Value 0.8
SYMBOL cap 304 256 R0
SYMATTR InstName C2
SYMATTR Value 10f
TEXT -1576 32 Left 2 !.tran 0 2n 0
TEXT -1584 112 Left 2 !.param pulse_ampl=0.05
