Version 4
SHEET 1 2228 1108
WIRE 256 -304 208 -304
WIRE 304 -304 256 -304
WIRE 208 -288 208 -304
WIRE 160 -272 64 -272
WIRE 304 -240 304 -304
WIRE 304 -240 208 -240
WIRE -160 -176 -368 -176
WIRE 64 -176 64 -272
WIRE 64 -176 -160 -176
WIRE 208 -160 208 -192
WIRE 448 -160 208 -160
WIRE 528 -160 448 -160
WIRE -560 -144 -560 -208
WIRE -368 -144 -368 -176
WIRE 208 -112 208 -160
WIRE 528 -112 528 -160
WIRE 304 -64 208 -64
WIRE 64 -32 64 -176
WIRE 160 -32 64 -32
WIRE 528 -16 528 -48
WIRE 208 0 208 -16
WIRE 304 0 304 -64
WIRE 304 0 208 0
WIRE -560 16 -560 -64
WIRE -368 16 -368 -64
WIRE 208 32 208 0
WIRE -736 96 -816 96
WIRE -672 96 -736 96
WIRE -672 144 -672 96
WIRE -816 208 -816 96
WIRE 0 208 -64 208
WIRE 0 240 -64 240
WIRE -672 256 -672 224
WIRE -592 256 -672 256
WIRE -544 256 -592 256
WIRE 288 256 224 256
WIRE -672 272 -672 256
WIRE 0 272 -64 272
WIRE -544 288 -544 256
WIRE -400 288 -400 224
WIRE 0 304 -64 304
WIRE 496 304 496 256
WIRE -816 400 -816 288
WIRE -736 400 -816 400
WIRE -672 400 -672 352
WIRE -672 400 -736 400
WIRE 496 400 496 368
WIRE -544 416 -544 368
WIRE -400 416 -400 368
FLAG -560 16 0
FLAG 208 32 0
FLAG -368 16 0
FLAG 528 -16 0
FLAG -160 -176 pulsein
FLAG 448 -160 pulseout
FLAG -560 -208 vdd
FLAG 256 -304 vdd
FLAG -64 208 vdd
IOPIN -64 208 In
FLAG -400 416 0
FLAG -64 272 inp
IOPIN -64 272 In
FLAG -64 240 inn
IOPIN -64 240 In
FLAG 288 256 out
IOPIN 288 256 Out
FLAG -64 304 iref_sink
IOPIN -64 304 In
FLAG -400 224 iref_sink
IOPIN -400 224 In
FLAG -736 96 inp
IOPIN -736 96 In
FLAG -736 400 inn
IOPIN -736 400 In
FLAG -544 416 0
FLAG -592 256 vcm
FLAG 496 400 0
FLAG 496 256 out
IOPIN 496 256 Out
SYMBOL nmos4 160 -112 R0
WINDOW 123 56 100 Left 2
SYMATTR Value2 l=0.18u w=0.5u
SYMATTR InstName M1
SYMBOL pmos4 160 -192 M180
WINDOW 123 56 4 Left 2
SYMATTR Value2 l=0.18u w=1u
SYMATTR InstName M2
SYMBOL voltage -560 -160 R0
WINDOW 123 0 0 Left 0
WINDOW 39 0 0 Left 0
SYMATTR InstName V1
SYMATTR Value 1.8
SYMBOL voltage -368 -160 R0
WINDOW 123 0 0 Left 0
WINDOW 39 0 0 Left 0
SYMATTR InstName V2
SYMATTR Value PULSE(0 1.8 100f 10f 10f 0.5n 1n)
SYMBOL cap 512 -112 R0
SYMATTR InstName C1
SYMATTR Value 10f
SYMBOL current -400 288 R0
WINDOW 123 0 0 Left 0
WINDOW 39 0 0 Left 0
SYMATTR InstName I1
SYMATTR Value 50µ
SYMBOL lvds_rcvr_v2 112 256 R0
SYMATTR InstName X1
SYMBOL voltage -816 192 M0
WINDOW 123 0 0 Left 0
WINDOW 39 0 0 Left 0
SYMATTR InstName V3
SYMATTR Value PULSE({pulse_ampl /2} {-1*pulse_ampl /2} 100f 10f 10f 0.5n 1n)
SYMBOL res -688 128 R0
SYMATTR InstName R1
SYMATTR Value 50
SYMBOL res -688 256 R0
SYMATTR InstName R2
SYMATTR Value 50
SYMBOL voltage -544 272 R0
WINDOW 123 0 0 Left 0
WINDOW 39 0 0 Left 0
SYMATTR InstName V4
SYMATTR Value 0.8
SYMBOL cap 480 304 R0
SYMATTR InstName C2
SYMATTR Value 10f
TEXT -368 -256 Left 2 !.tran 0 2n 0
TEXT -1128 -272 Left 2 !.param pulse_ampl=0.05
