Version 4
SHEET 1 2228 1108
WIRE -768 96 -816 96
WIRE -736 96 -768 96
WIRE -672 96 -736 96
WIRE -816 112 -816 96
WIRE -672 144 -672 96
WIRE -112 208 -176 208
WIRE 464 208 464 144
WIRE -112 240 -176 240
WIRE -672 256 -672 224
WIRE -592 256 -672 256
WIRE -544 256 -592 256
WIRE 176 256 112 256
WIRE 320 256 320 208
WIRE -672 272 -672 256
WIRE -112 272 -176 272
WIRE -544 288 -544 256
WIRE -400 288 -400 224
WIRE -112 304 -176 304
WIRE 320 352 320 320
WIRE 464 368 464 288
WIRE -816 400 -816 192
WIRE -800 400 -816 400
WIRE -736 400 -800 400
WIRE -672 400 -672 352
WIRE -672 400 -736 400
WIRE -544 416 -544 368
WIRE -400 416 -400 368
WIRE -656 448 -704 448
WIRE -704 480 -704 448
WIRE -768 496 -768 96
WIRE -752 496 -768 496
WIRE -800 544 -800 400
WIRE -752 544 -800 544
WIRE -704 608 -704 560
FLAG 464 368 0
FLAG 464 144 vdd
FLAG -176 208 vdd
IOPIN -176 208 In
FLAG -400 416 0
FLAG -176 272 inp
IOPIN -176 272 In
FLAG -176 240 inn
IOPIN -176 240 In
FLAG 176 256 out
IOPIN 176 256 Out
FLAG -176 304 iref_sink
IOPIN -176 304 In
FLAG -400 224 iref_sink
IOPIN -400 224 In
FLAG -736 96 inp
IOPIN -736 96 In
FLAG -736 400 inn
IOPIN -736 400 In
FLAG -544 416 0
FLAG -592 256 vcm
FLAG 320 352 0
FLAG 320 208 out
IOPIN 320 208 Out
FLAG -704 608 0
FLAG -656 448 in
IOPIN -656 448 In
SYMBOL voltage 464 192 R0
WINDOW 123 0 0 Left 0
WINDOW 39 0 0 Left 0
SYMATTR InstName V1
SYMATTR Value {supply}
SYMBOL current -400 288 R0
WINDOW 123 0 0 Left 0
WINDOW 39 0 0 Left 0
SYMATTR InstName I1
SYMATTR Value 50µ
SYMBOL voltage -816 96 M0
WINDOW 123 0 0 Left 0
WINDOW 39 0 0 Left 0
WINDOW 3 -379 40 Left 2
SYMATTR Value PULSE({pulse_ampl /2} {-1*pulse_ampl /2} {cycle_time/10} {cycle_time/10} {cycle_time/10} {cycle_time/2} {cycle_time})
SYMATTR InstName V3
SYMBOL res -688 128 R0
SYMATTR InstName R1
SYMATTR Value 50
SYMBOL res -688 256 R0
SYMATTR InstName R2
SYMATTR Value 50
SYMBOL voltage -544 272 R0
WINDOW 123 0 0 Left 0
WINDOW 39 0 0 Left 0
SYMATTR InstName V4
SYMATTR Value 0.8
SYMBOL cap 304 256 R0
SYMATTR InstName C2
SYMATTR Value 10f
SYMBOL e -704 464 R0
SYMATTR InstName E1
SYMATTR Value 1.0
SYMBOL lvds_rcvr_v3 0 256 R0
SYMATTR InstName X1
TEXT -216 80 Left 2 !.tran 0 {cycle_time*1} 0
TEXT -1600 256 Left 2 !.param pulse_ampl=0.05 \n*.param supply=1.8\n.param cycle_time=4n\n*----------------------------------------------------------------------\n * rising prop delay\n.measure tpdr\n+ TRIG v(in) VAL=0 FALL=1\n+ TARG v(out) VAL='SUPPLY/2' RISE=1\n* falling prop delay\n.measure tpdf \n+ TRIG v(in) VAL=0 RISE=1\n+ TARG v(out) VAL='SUPPLY/2' FALL=1\n* average prop delay\n.measure tpd param=(tpdr+tpdf)/2\n* Delta rise fall time - essential FOM for speed\n.measure tdrf param=tpdr-tpdf\n*\n* rise time\n.measure trise TRIG v(out) VAL='0.333*SUPPLY' RISE=1 TARG v(out) VAL='0.667*SUPPLY' RISE=1\n* fall time\n.meas tfall TRIG v(out)={0.667*SUPPLY} FALL=1 TARG v(out)={0.333*SUPPLY} FALL=1
TEXT -352 504 Left 2 !* The optmizer program drops the params in here\n*\n.include param.txt\n*\n*.save V(out) V(in)\n* Note that we must save everything we are trying to measure\n*\n.include 180nm_bulk.lib
